Version 4
SHEET 1 880 680
WIRE 288 -48 208 -48
WIRE 208 -32 208 -48
WIRE 288 -16 288 -48
WIRE 208 160 208 48
WIRE 208 160 192 160
WIRE 160 176 112 176
WIRE 448 192 272 192
WIRE 624 192 448 192
WIRE 448 304 448 192
WIRE 112 320 112 176
WIRE 192 336 192 224
WIRE 528 384 448 384
WIRE 112 448 112 384
WIRE 448 448 448 384
WIRE 448 448 112 448
FLAG 192 336 0
FLAG 288 -16 0
FLAG 592 384 0
FLAG 32 320 0
FLAG 160 208 0
SYMBOL OpAmps\\UA741 192 192 R0
SYMATTR InstName U1
SYMBOL voltage 208 64 R180
WINDOW 0 24 96 Left 2
WINDOW 3 24 16 Left 2
WINDOW 123 0 0 Left 0
WINDOW 39 0 0 Left 0
SYMATTR InstName V1
SYMATTR Value 4.166
SYMBOL res 432 288 R0
SYMATTR InstName R1
SYMATTR Value 5k
SYMBOL cap 592 368 R90
WINDOW 0 0 32 VBottom 2
WINDOW 3 32 32 VTop 2
SYMATTR InstName C1
SYMATTR Value 0.0003ľ
SYMBOL cap 96 320 R0
SYMATTR InstName C2
SYMATTR Value 0.0003ľ
SYMBOL res 128 304 R90
WINDOW 0 0 56 VBottom 2
WINDOW 3 32 56 VTop 2
SYMATTR InstName R2
SYMATTR Value 5k
TEXT 8 456 Left 2 !.tran 2m
